17
Lattice="8.455582619 0.0 0.0 4.227791797 7.32274907 0.0 0.0 0.0 26.90395546" Properties=species:S:1:pos:R:3 pbc="T T T"
C        7.54111465       4.11922366      19.92344096
C        8.35320989       5.25438434      19.24855472
C        6.00347937       4.27194460      19.93974555
C        7.67332679       6.58291305      19.24394000
C        5.46605858       5.40956434      19.07544482
C        6.25372840       6.66919335      19.17466098
H        7.82979808       3.15637258      19.46761354
H        7.89233264       4.06852876      20.97191665
H        5.51139298       3.33187664      19.64487232
H        5.67173408       4.48182802      20.97567056
H        4.00951929       0.11192548      19.63342989
H        4.40207806       5.59135086      19.27112999
H        1.52312930       0.24724411      19.53862863
C        9.75026467       5.33012509      19.86995779
H       10.35555371       6.13091651      19.41658212
H       10.28984513       4.37628694      19.76545167
H        9.64357143       5.54667332      20.95093687
